Version 4
SHEET 1 880 680
WIRE -224 -144 -384 -144
WIRE 32 -144 -224 -144
WIRE 400 -144 32 -144
WIRE -224 -112 -224 -144
WIRE 32 -112 32 -144
WIRE 176 -32 176 -80
WIRE 256 -32 176 -32
WIRE -224 -16 -224 -32
WIRE -32 -16 -224 -16
WIRE 32 -16 32 -32
WIRE -224 32 -224 -16
WIRE -32 32 -32 -16
WIRE -384 80 -384 -144
WIRE 400 80 400 -144
WIRE -560 128 -752 128
WIRE 32 128 32 80
WIRE 112 128 32 128
WIRE 256 128 256 -32
WIRE 256 128 176 128
WIRE -752 160 -752 128
WIRE 32 176 32 128
WIRE -224 192 -224 96
WIRE 256 192 256 128
WIRE -560 272 -560 128
WIRE -384 272 -384 160
WIRE -384 272 -496 272
WIRE -288 272 -384 272
WIRE -752 304 -752 240
WIRE -224 304 -224 256
WIRE -32 304 -32 224
WIRE -32 304 -224 304
WIRE 32 304 32 272
WIRE -384 320 -384 272
WIRE -288 352 -288 272
WIRE -752 416 -752 384
WIRE -384 416 -384 400
WIRE -384 416 -752 416
WIRE -224 416 -224 400
WIRE 32 416 32 384
WIRE 32 416 0 416
WIRE 256 416 256 272
WIRE 256 416 32 416
WIRE 400 416 400 160
WIRE 400 416 256 416
WIRE -384 544 -384 416
WIRE -224 544 -224 496
WIRE -224 544 -384 544
WIRE 0 544 0 416
WIRE 0 544 -224 544
FLAG 32 416 0
FLAG 176 -80 NegFeedback
IOPIN 176 -80 Out
SYMBOL npn -32 -16 R0
SYMATTR InstName Q1
SYMATTR Value 2N3904
SYMBOL pnp -32 272 M180
SYMATTR InstName Q2
SYMATTR Value 2N3906
SYMBOL res 240 176 R0
SYMATTR InstName Rload1
SYMATTR Value 8
SYMBOL cap 176 112 R90
WINDOW 0 0 32 VBottom 2
WINDOW 3 32 32 VTop 2
SYMATTR InstName C1
SYMATTR Value 500µ
SYMBOL voltage 400 64 R0
SYMATTR InstName Vdc1
SYMATTR Value 9
SYMBOL res 16 288 R0
SYMATTR InstName R1
SYMATTR Value 5k
SYMBOL res 16 -128 R0
SYMATTR InstName R2
SYMATTR Value 500
SYMBOL diode -240 32 R0
SYMATTR InstName D1
SYMATTR Value 1N914
SYMBOL diode -240 192 R0
SYMATTR InstName D2
SYMATTR Value 1N914
SYMBOL npn -288 304 R0
SYMATTR InstName Q3
SYMATTR Value 2N3904
SYMBOL res -240 -128 R0
SYMATTR InstName R8
SYMATTR Value 410
SYMBOL res -400 64 R0
SYMATTR InstName R4
SYMATTR Value 100k
SYMBOL res -400 304 R0
SYMATTR InstName R5
SYMATTR Value 100k
SYMBOL res -768 144 R0
SYMATTR InstName R6
SYMATTR Value 50
SYMBOL cap -496 256 R90
WINDOW 0 0 32 VBottom 2
WINDOW 3 32 32 VTop 2
SYMATTR InstName C2
SYMATTR Value 500µ
SYMBOL res -240 400 R0
SYMATTR InstName R7
SYMATTR Value 0
SYMBOL voltage -752 288 R0
WINDOW 123 24 124 Left 2
WINDOW 39 0 0 Left 2
SYMATTR Value2 AC 1
SYMATTR InstName Vsig1
SYMATTR Value SINE(0 30m 200)
TEXT -152 -336 Left 2 !;tran .1
TEXT -200 -288 Left 2 !.ac dec 10 10 25k
