Version 4
SHEET 1 1204 880
WIRE -2976 -80 -3392 -80
WIRE -2784 -80 -2976 -80
WIRE -2752 -80 -2784 -80
WIRE -2528 -80 -2752 -80
WIRE -2256 -80 -2528 -80
WIRE -1808 -80 -2256 -80
WIRE -2976 32 -2976 -80
WIRE -2752 32 -2752 0
WIRE -2528 32 -2528 0
WIRE -2256 32 -2256 -80
WIRE -2640 80 -2688 80
WIRE -2592 80 -2640 80
WIRE -1808 112 -1808 -80
WIRE -2752 144 -2752 128
WIRE -2640 144 -2640 80
WIRE -2528 160 -2528 128
WIRE -2192 160 -2528 160
WIRE -1872 160 -2192 160
WIRE -2752 192 -2752 144
WIRE -2704 192 -2752 192
WIRE -2752 224 -2752 192
WIRE -2752 224 -2880 224
WIRE -2528 224 -2528 160
WIRE -2400 224 -2528 224
WIRE -1808 240 -1808 208
WIRE -1296 240 -1808 240
WIRE -1104 240 -1232 240
WIRE -3392 256 -3392 -80
WIRE -1104 256 -1104 240
WIRE -896 256 -1104 256
WIRE -3264 272 -3280 272
WIRE -2976 272 -2976 112
WIRE -2976 272 -3200 272
WIRE -2960 272 -2976 272
WIRE -2944 272 -2960 272
WIRE -2752 272 -2752 224
WIRE -2528 272 -2528 224
WIRE -2288 272 -2336 272
WIRE -2256 272 -2256 112
WIRE -2256 272 -2288 272
WIRE -2208 272 -2256 272
WIRE -2048 272 -2144 272
WIRE -1968 272 -2048 272
WIRE -1104 272 -1104 256
WIRE -1104 272 -1888 272
WIRE -2640 288 -2640 240
WIRE -2816 320 -2880 320
WIRE -2400 320 -2464 320
WIRE -3280 336 -3280 272
WIRE -1104 352 -1104 272
WIRE -2976 400 -2976 272
WIRE -2256 400 -2256 272
WIRE -2048 400 -2048 272
WIRE -2752 464 -2752 368
WIRE -2688 464 -2752 464
WIRE -2640 464 -2688 464
WIRE -2528 464 -2528 368
WIRE -2528 464 -2640 464
WIRE -3280 544 -3280 416
WIRE -2784 576 -2784 -80
WIRE -2640 640 -2640 464
WIRE -2784 688 -2784 656
WIRE -2704 688 -2784 688
WIRE -2784 736 -2784 688
WIRE -3392 864 -3392 336
WIRE -3280 864 -3280 624
WIRE -3280 864 -3392 864
WIRE -2976 864 -2976 480
WIRE -2976 864 -3280 864
WIRE -2784 864 -2784 800
WIRE -2784 864 -2976 864
WIRE -2640 864 -2640 736
WIRE -2640 864 -2784 864
WIRE -2256 864 -2256 480
WIRE -2256 864 -2640 864
WIRE -2048 864 -2048 480
WIRE -2048 864 -2256 864
WIRE -1808 864 -1808 320
WIRE -1808 864 -2048 864
WIRE -1104 864 -1104 432
WIRE -1104 864 -1808 864
FLAG -2640 864 0
FLAG -2640 288 0
FLAG -896 256 OutPut
IOPIN -896 256 Out
DATAFLAG -2288 272 ""
DATAFLAG -2960 272 ""
DATAFLAG -2688 464 ""
DATAFLAG -2192 160 "$"
DATAFLAG -2752 144 "$"
SYMBOL npn -2816 272 R0
SYMATTR InstName Q3
SYMATTR Value 2N3904
SYMBOL npn -2464 272 M0
SYMATTR InstName Q4
SYMATTR Value 2N3904
SYMBOL npn -2336 224 M0
SYMATTR InstName Q5
SYMATTR Value 2N3904
SYMBOL npn -2944 224 R0
SYMATTR InstName Q6
SYMATTR Value 2N3904
SYMBOL voltage -3392 240 R0
WINDOW 123 0 0 Left 2
WINDOW 39 0 0 Left 2
SYMATTR InstName Vdc2
SYMATTR Value 9
SYMBOL cap -3200 256 R90
WINDOW 0 0 32 VBottom 2
WINDOW 3 32 32 VTop 2
SYMATTR InstName C3
SYMATTR Value 100µ
SYMBOL voltage -3280 528 R0
WINDOW 123 24 124 Left 2
WINDOW 39 0 0 Left 2
SYMATTR Value2 AC 1
SYMATTR InstName Vsig2
SYMATTR Value SINE(0 30m 20)
SYMBOL res -2992 16 R0
SYMATTR InstName R8
SYMATTR Value 100k
SYMBOL res -2992 384 R0
SYMATTR InstName R9
SYMATTR Value 100k
SYMBOL cap -2144 256 R90
WINDOW 0 0 32 VBottom 2
WINDOW 3 32 32 VTop 2
SYMATTR InstName C4
SYMATTR Value 100µ
SYMBOL res -2272 16 R0
SYMATTR InstName R10
SYMATTR Value 100k
SYMBOL res -2272 384 R0
SYMATTR InstName 1k
SYMATTR Value 100k
SYMBOL res -3296 320 R0
SYMATTR InstName R12
SYMATTR Value 50
SYMBOL npn -2704 640 R0
SYMATTR InstName Q7
SYMATTR Value 2N3904
SYMBOL diode -2800 736 R0
SYMATTR InstName D5
SYMATTR Value 1N914
SYMBOL res -2800 560 R0
SYMATTR InstName R16
SYMATTR Value 500
SYMBOL pnp -2688 128 R180
SYMATTR InstName Q1
SYMBOL pnp -2592 128 M180
SYMATTR InstName Q2
SYMBOL res -2544 -96 R0
SYMATTR InstName R1
SYMATTR Value 0
SYMBOL res -2768 -96 R0
SYMATTR InstName R2
SYMATTR Value 0
SYMBOL pnp -2704 240 M180
SYMATTR InstName Q8
SYMBOL res -1120 336 R0
SYMATTR InstName R5
SYMATTR Value 8
SYMBOL cap -1232 224 R90
WINDOW 0 0 32 VBottom 2
WINDOW 3 32 32 VTop 2
SYMATTR InstName C1
SYMATTR Value 1000µ
SYMBOL res -1824 224 R0
SYMATTR InstName R6
SYMATTR Value 100
SYMBOL npn -1872 112 R0
SYMATTR InstName Q9
SYMATTR Value 2N3904
SYMBOL res -1872 256 R90
WINDOW 0 0 56 VBottom 2
WINDOW 3 32 56 VTop 2
SYMATTR InstName R3
SYMATTR Value 1.2k
SYMBOL res -2032 496 R180
WINDOW 0 36 76 Left 2
WINDOW 3 36 40 Left 2
SYMATTR InstName R4
SYMATTR Value 100
TEXT -2224 -248 Left 2 !.tran .1
TEXT -2272 -200 Left 2 ;.ac dec 10 10 25k
